Version 4
SHEET 1 2368 716
WIRE 1520 -448 1520 -496
WIRE 416 -336 416 -432
WIRE 1856 -336 1856 -432
WIRE -992 -320 -1072 -320
WIRE 496 -288 416 -288
WIRE 1936 -288 1856 -288
WIRE 80 -256 80 -416
WIRE 368 -256 80 -256
WIRE 1520 -256 1520 -304
WIRE 1808 -256 1520 -256
WIRE -992 -176 -1072 -176
WIRE -400 -176 -400 -272
WIRE 80 -176 80 -256
WIRE 1040 -176 1040 -272
WIRE 1520 -176 1520 -256
WIRE -416 -128 -528 -128
WIRE -256 -128 -320 -128
WIRE -192 -128 -256 -128
WIRE 0 -128 -48 -128
WIRE 64 -128 0 -128
WIRE 416 -128 416 -240
WIRE 416 -128 160 -128
WIRE 1024 -128 912 -128
WIRE 1184 -128 1120 -128
WIRE 1248 -128 1184 -128
WIRE 1440 -128 1392 -128
WIRE 1504 -128 1440 -128
WIRE 1856 -128 1856 -240
WIRE 1856 -128 1600 -128
WIRE -992 -32 -1072 -32
WIRE -368 -32 -368 -128
WIRE 112 -32 112 -128
WIRE 1072 -32 1072 -128
WIRE 1552 -32 1552 -128
WIRE 416 16 416 -128
WIRE 1856 16 1856 -128
WIRE 0 32 0 -128
WIRE 0 32 -128 32
WIRE 1440 32 1440 -128
WIRE 1440 32 1312 32
WIRE -528 80 -528 -128
WIRE -528 80 -688 80
WIRE -256 80 -256 -128
WIRE 0 80 -256 80
WIRE 912 80 912 -128
WIRE 912 80 752 80
WIRE 1184 80 1184 -128
WIRE 1440 80 1184 80
WIRE -992 96 -1072 96
WIRE -128 112 -128 32
WIRE -128 112 -256 112
WIRE 1312 112 1312 32
WIRE 1312 112 1184 112
WIRE -992 256 -1072 256
WIRE -528 336 -528 80
WIRE -416 336 -528 336
WIRE -368 336 -368 240
WIRE -256 336 -256 112
WIRE -256 336 -320 336
WIRE -176 336 -256 336
WIRE 0 336 0 80
WIRE 0 336 -32 336
WIRE 64 336 0 336
WIRE 112 336 112 240
WIRE 416 336 416 112
WIRE 416 336 160 336
WIRE 480 336 416 336
WIRE 640 336 624 336
WIRE 688 336 640 336
WIRE 880 336 832 336
WIRE 912 336 912 80
WIRE 1024 336 912 336
WIRE 1072 336 1072 240
WIRE 1184 336 1184 112
WIRE 1184 336 1120 336
WIRE 1264 336 1184 336
WIRE 1440 336 1440 80
WIRE 1440 336 1408 336
WIRE 1504 336 1440 336
WIRE 1552 336 1552 240
WIRE 1856 336 1856 112
WIRE 1856 336 1600 336
WIRE 1920 336 1856 336
WIRE 2080 336 2064 336
WIRE 2128 336 2080 336
WIRE 2320 336 2272 336
WIRE 416 384 416 336
WIRE 1856 384 1856 336
WIRE 640 416 640 336
WIRE 880 416 640 416
WIRE 1584 416 1584 384
WIRE 2080 416 2080 336
WIRE 2320 416 2080 416
WIRE -336 480 -336 384
WIRE 1104 480 1104 384
WIRE 144 496 144 384
WIRE 416 512 416 464
WIRE 1856 512 1856 464
WIRE 1584 608 1584 560
FLAG 416 512 0
FLAG -1152 -320 0
FLAG -1152 -176 0
FLAG -1152 -32 0
FLAG -1152 96 0
FLAG -1152 256 0
FLAG -992 -320 Vdd
FLAG -992 -176 Vss
FLAG -992 -32 CP
FLAG -992 96 S
FLAG -992 256 RS
FLAG -688 80 Vdd
FLAG -400 -272 S
FLAG -336 480 RS
FLAG 80 -416 CP
FLAG 144 496 CP
FLAG 416 -432 Vdd
FLAG 496 -288 Vdd
FLAG 880 336 Y
FLAG 880 416 Yb
FLAG -368 -32 Vss
FLAG -368 240 Vss
FLAG 112 -32 Vss
FLAG 112 240 Vss
FLAG 1856 512 0
FLAG 752 80 Vdd
FLAG 1040 -272 Y
FLAG 1104 480 Yb
FLAG 1520 -496 CP
FLAG 1584 608 CP
FLAG 1856 -432 Vdd
FLAG 1936 -288 Vdd
FLAG 2320 336 Q
FLAG 2320 416 Qb
FLAG 1072 -32 Vss
FLAG 1072 240 Vss
FLAG 1552 -32 Vss
FLAG 1552 240 Vss
SYMBOL memristor 416 64 R0
SYMATTR InstName Memristor
SYMBOL res 400 368 R0
SYMATTR InstName RL
SYMATTR Value 20k
SYMBOL voltage -1056 -320 R90
WINDOW 0 -32 56 VBottom 2
WINDOW 3 32 56 VTop 2
WINDOW 123 0 0 Left 0
WINDOW 39 0 0 Left 0
SYMATTR InstName Vdd
SYMATTR Value {Vdd}
SYMBOL voltage -1056 -176 R90
WINDOW 0 -32 56 VBottom 2
WINDOW 3 32 56 VTop 2
WINDOW 123 0 0 Left 0
WINDOW 39 0 0 Left 0
SYMATTR InstName Vss
SYMATTR Value 0
SYMBOL voltage -1056 -32 R90
WINDOW 0 -32 56 VBottom 2
WINDOW 3 32 56 VTop 2
WINDOW 123 0 0 Left 0
WINDOW 39 0 0 Left 0
SYMATTR InstName CP
SYMATTR Value PULSE(0 {Vdd} 100m 1m 1m 200m 400m)
SYMBOL voltage -1056 96 R90
WINDOW 0 -32 56 VBottom 2
WINDOW 3 32 56 VTop 2
WINDOW 123 0 0 Left 0
WINDOW 39 0 0 Left 0
SYMATTR InstName S
SYMATTR Value PULSE(0 {Vdd} 50m 1m 1m 100m 1600m)
SYMBOL voltage -1056 256 R90
WINDOW 0 -32 56 VBottom 2
WINDOW 3 32 56 VTop 2
WINDOW 123 0 0 Left 0
WINDOW 39 0 0 Left 0
SYMATTR InstName R
SYMATTR Value PULSE(0 {Vdd} 850m 1m 1m 100m 1600m)
SYMBOL nmos4 -320 -176 R90
SYMATTR InstName M1
SYMATTR Value2 l=130nm w=520nm
SYMBOL nmos4 160 -176 R90
SYMATTR InstName M3
SYMATTR Value2 l=130nm w=130nm
SYMBOL nmos4 -416 384 R270
SYMATTR InstName M2
SYMATTR Value2 l=130nm w=520nm
SYMBOL nmos4 64 384 R270
SYMATTR InstName M4
SYMATTR Value2 l=130nm w=130nm
SYMBOL pmos4 368 -336 R0
SYMATTR InstName M5
SYMATTR Value2 l=130n w=130n
SYMBOL inv -144 -128 R0
SYMATTR InstName X1
SYMBOL inv -128 336 R0
SYMATTR InstName X2
SYMBOL inv 528 336 R0
SYMATTR InstName X3
SYMBOL inv 736 336 R0
SYMATTR InstName X4
SYMBOL memristor 1856 64 R0
SYMATTR InstName Memristor1
SYMBOL res 1840 368 R0
SYMATTR InstName RL1
SYMATTR Value 20k
SYMBOL nmos4 1120 -176 R90
SYMATTR InstName M6
SYMATTR Value2 l=130nm w=520nm
SYMBOL nmos4 1600 -176 R90
SYMATTR InstName M7
SYMATTR Value2 l=130nm w=130nm
SYMBOL nmos4 1024 384 R270
SYMATTR InstName M8
SYMATTR Value2 l=130nm w=520nm
SYMBOL nmos4 1504 384 R270
SYMATTR InstName M9
SYMATTR Value2 l=130nm w=130nm
SYMBOL pmos4 1808 -336 R0
SYMATTR InstName M10
SYMATTR Value2 l=130n w=130n
SYMBOL inv 1296 -128 R0
SYMATTR InstName X5
SYMBOL inv 1312 336 R0
SYMATTR InstName X6
SYMBOL inv 1968 336 R0
SYMATTR InstName X7
SYMBOL inv 2176 336 R0
SYMATTR InstName X8
SYMBOL inv 1584 512 R270
SYMATTR InstName X9
SYMBOL inv 1520 -400 R90
SYMATTR InstName X10
TEXT -1176 456 Left 2 !.tran 6400m
TEXT -1176 416 Left 2 !.lib ./ptm_130nm.model
TEXT -1176 496 Left 2 !.param Vdd 1.5
TEXT -1176 544 Left 2 !.global Vdd Vss
