Version 4
SHEET 1 1044 680
WIRE 416 -336 416 -432
WIRE -992 -320 -1072 -320
WIRE 496 -288 416 -288
WIRE 80 -256 80 -416
WIRE 368 -256 80 -256
WIRE -992 -176 -1072 -176
WIRE -400 -176 -400 -272
WIRE 80 -176 80 -256
WIRE -416 -128 -528 -128
WIRE -256 -128 -320 -128
WIRE -192 -128 -256 -128
WIRE 0 -128 -48 -128
WIRE 64 -128 0 -128
WIRE 416 -128 416 -240
WIRE 416 -128 160 -128
WIRE -992 -32 -1072 -32
WIRE -368 -32 -368 -128
WIRE 112 -32 112 -128
WIRE 416 16 416 -128
WIRE 0 32 0 -128
WIRE 0 32 -128 32
WIRE -528 80 -528 -128
WIRE -528 80 -688 80
WIRE -256 80 -256 -128
WIRE 0 80 -256 80
WIRE -992 96 -1072 96
WIRE -128 112 -128 32
WIRE -128 112 -256 112
WIRE -992 256 -1072 256
WIRE -528 336 -528 80
WIRE -416 336 -528 336
WIRE -368 336 -368 240
WIRE -256 336 -256 112
WIRE -256 336 -320 336
WIRE -176 336 -256 336
WIRE 0 336 0 80
WIRE 0 336 -32 336
WIRE 64 336 0 336
WIRE 112 336 112 240
WIRE 416 336 416 112
WIRE 416 336 160 336
WIRE 480 336 416 336
WIRE 640 336 624 336
WIRE 688 336 640 336
WIRE 880 336 832 336
WIRE 416 384 416 336
WIRE 640 416 640 336
WIRE 880 416 640 416
WIRE -336 480 -336 384
WIRE 144 496 144 384
WIRE 416 512 416 464
FLAG 416 512 0
FLAG -1152 -320 0
FLAG -1152 -176 0
FLAG -1152 -32 0
FLAG -1152 96 0
FLAG -1152 256 0
FLAG -992 -320 Vdd
FLAG -992 -176 Vss
FLAG -992 -32 CP
FLAG -992 96 S
FLAG -992 256 RS
FLAG -688 80 Vdd
FLAG -400 -272 S
FLAG -336 480 RS
FLAG 80 -416 CP
FLAG 144 496 CP
FLAG 416 -432 Vdd
FLAG 496 -288 Vdd
FLAG 880 336 Q
FLAG 880 416 Qb
FLAG -368 -32 Vss
FLAG -368 240 Vss
FLAG 112 -32 Vss
FLAG 112 240 Vss
SYMBOL memristor 416 64 R0
SYMATTR InstName Memristor
SYMBOL res 400 368 R0
SYMATTR InstName RL
SYMATTR Value 20k
SYMBOL voltage -1056 -320 R90
WINDOW 0 -32 56 VBottom 2
WINDOW 3 32 56 VTop 2
WINDOW 123 0 0 Left 0
WINDOW 39 0 0 Left 0
SYMATTR InstName Vdd
SYMATTR Value {Vdd}
SYMBOL voltage -1056 -176 R90
WINDOW 0 -32 56 VBottom 2
WINDOW 3 32 56 VTop 2
WINDOW 123 0 0 Left 0
WINDOW 39 0 0 Left 0
SYMATTR InstName Vss
SYMATTR Value 0
SYMBOL voltage -1056 -32 R90
WINDOW 0 -32 56 VBottom 2
WINDOW 3 32 56 VTop 2
WINDOW 123 0 0 Left 0
WINDOW 39 0 0 Left 0
SYMATTR InstName CP
SYMATTR Value PULSE(0 {Vdd} 100m 1m 1m 200m 400m)
SYMBOL voltage -1056 96 R90
WINDOW 0 -32 56 VBottom 2
WINDOW 3 32 56 VTop 2
WINDOW 123 0 0 Left 0
WINDOW 39 0 0 Left 0
SYMATTR InstName S
SYMATTR Value PULSE(0 {Vdd} 50m 1m 1m 100m 1600m)
SYMBOL voltage -1056 256 R90
WINDOW 0 -32 56 VBottom 2
WINDOW 3 32 56 VTop 2
WINDOW 123 0 0 Left 0
WINDOW 39 0 0 Left 0
SYMATTR InstName R
SYMATTR Value PULSE(0 {Vdd} 850m 1m 1m 100m 1600m)
SYMBOL nmos4 -320 -176 R90
SYMATTR InstName M1
SYMATTR Value2 l=130nm w=520nm
SYMBOL nmos4 160 -176 R90
SYMATTR InstName M3
SYMATTR Value2 l=130nm w=130nm
SYMBOL nmos4 -416 384 R270
SYMATTR InstName M2
SYMATTR Value2 l=130nm w=520nm
SYMBOL nmos4 64 384 R270
SYMATTR InstName M4
SYMATTR Value2 l=130nm w=130nm
SYMBOL pmos4 368 -336 R0
SYMATTR InstName M5
SYMATTR Value2 l=130n w=130n
SYMBOL inv -144 -128 R0
SYMATTR InstName X1
SYMBOL inv -128 336 R0
SYMATTR InstName X2
SYMBOL inv 528 336 R0
SYMATTR InstName X3
SYMBOL inv 736 336 R0
SYMATTR InstName X4
TEXT -1176 456 Left 2 !.tran 6400m
TEXT -1176 416 Left 2 !.lib ./ptm_130nm.model
TEXT -1176 496 Left 2 !.param Vdd 1.5
TEXT -1176 544 Left 2 !.global Vdd Vss
